data/LV20_26bus_Fr_Copy_2/lines.dss
new line.L_170 lineCode=ughv_400al_triplex_ug_4w_bundled bus1=B1670 bus2=B1450 length=0.000255748683551 units=km phases=4
new line.L_530 lineCode=uglv_240al_xlpe/nyl/pvc_ug_4w_bundled bus1=B3151 bus2=B389 length=0.00625791899814 units=km phases=4
new line.L_679 lineCode=uglv_240al_xlpe/nyl/pvc_ug_4w_bundled bus1=B2140 bus2=B485 length=0.0333574153231 units=km phases=4
new line.L_907 lineCode=ughv_400al_triplex_ug_4w_bundled bus1=B1450 bus2=B2747 length=0.000328479049667 units=km phases=4
new line.L_1096 lineCode=ugsc_16cu_xlpe/nyl/pvc_ug_4w_bundled bus1=B2594 bus2=B3151 length=0.0384501792591 units=km phases=4
new line.L_1596 lineCode=ughv_400al_triplex_ug_4w_bundled bus1=B2824 bus2=B1699 length=0.000255748683198 units=km phases=4
new line.L_1634 lineCode=ughv_400al_triplex_ug_4w_bundled bus1=B1450 bus2=B2913 length=0.000557888973260 units=km phases=4
new line.L_1663 lineCode=uglv_240al_xlpe/nyl/pvc_ug_4w_bundled bus1=B373 bus2=B1117 length=0.00323190271975 units=km phases=4
new line.L_1974 lineCode=ughv_400al_triplex_ug_4w_bundled bus1=B1450 bus2=B2600 length=0.000206301915236 units=km phases=4
new line.L_2007 lineCode=uglv_240al_xlpe/nyl/pvc_ug_4w_bundled bus1=B2140 bus2=B3037 length=0.00536767455489 units=km phases=4
new line.L_2685 lineCode=ugsc_16cu_xlpe/nyl/pvc_ug_4w_bundled bus1=B1816 bus2=B2140 length=0.0458728649490 units=km phases=4
new line.L_2790 lineCode=ughv_400al_triplex_ug_4w_bundled bus1=B1250 bus2=B2094 length=6.69200664901e-05 units=km phases=4
new line.L_3015 lineCode=ugsc_16cu_xlpe/nyl/pvc_ug_4w_bundled bus1=B1683 bus2=B3231 length=0.0310358778952 units=km phases=4
new line.L_3257 lineCode=ugsc_16cu_xlpe/nyl/pvc_ug_4w_bundled bus1=B2813 bus2=B373 length=0.0317950532806 units=km phases=4
new line.L_3359 lineCode=uglv_240al_xlpe/nyl/pvc_ug_4w_bundled bus1=B1117 bus2=B3231 length=0.0709701900782 units=km phases=4
new line.L_3484 lineCode=uglv_240al_xlpe/nyl/pvc_ug_4w_bundled bus1=B3151 bus2=B3231 length=0.0501689491984 units=km phases=4
new line.L_4224 lineCode=uglv_240al_xlpe/nyl/pvc_ug_4w_bundled bus1=B1477 bus2=B373 length=0.0263698315099 units=km phases=4
new line.L_4326 lineCode=ughv_400al_triplex_ug_4w_bundled bus1=B1921 bus2=B850 length=6.69200664901e-05 units=km phases=4
new line.L_4538 lineCode=ughv_400al_triplex_ug_4w_bundled bus1=B1450 bus2=B2644 length=0.000346773831222 units=km phases=4
